&HEAD CHID ='1x_ex'
TITLE='1x_ex' /

######### DOMAIN SETTINGS

###### Meshing Domain: x(0,560) y(25,95) AOI: x(400,480) y(25,95)
## Unburned range x(0,360) y(25,95)
## 1x burned range x(360,560) y(25,95)

&MESH IJK=200,20,75, XB=160,260,25,35,0,30/
&MESH IJK=200,20,75, XB=160,260,35,45,0,30/
&MESH IJK=200,20,75, XB=160,260,45,55,0,30/
&MESH IJK=200,20,75, XB=160,260,55,65,0,30/
&MESH IJK=200,20,75, XB=160,260,65,75,0,30/
&MESH IJK=200,20,75, XB=160,260,75,85,0,30/
&MESH IJK=200,20,75, XB=160,260,85,95,0,30/
&MESH IJK=200,20,75, XB=260,360,25,35,0,30/
&MESH IJK=200,20,75, XB=260,360,35,45,0,30/
&MESH IJK=200,20,75, XB=260,360,45,55,0,30/
&MESH IJK=200,20,75, XB=260,360,55,65,0,30/
&MESH IJK=200,20,75, XB=260,360,65,75,0,30/
&MESH IJK=200,20,75, XB=260,360,75,85,0,30/
&MESH IJK=200,20,75, XB=260,360,85,95,0,30/
&MESH IJK=200,20,75, XB=360,460,25,35,0,30/
&MESH IJK=200,20,75, XB=360,460,35,45,0,30/
&MESH IJK=200,20,75, XB=360,460,45,55,0,30/
&MESH IJK=200,20,75, XB=360,460,55,65,0,30/
&MESH IJK=200,20,75, XB=360,460,65,75,0,30/
&MESH IJK=200,20,75, XB=360,460,75,85,0,30/
&MESH IJK=200,20,75, XB=360,460,85,95,0,30/
&MESH IJK=200,20,75, XB=460,560,25,35,0,30/
&MESH IJK=200,20,75, XB=460,560,35,45,0,30/
&MESH IJK=200,20,75, XB=460,560,45,55,0,30/
&MESH IJK=200,20,75, XB=460,560,55,65,0,30/
&MESH IJK=200,20,75, XB=460,560,65,75,0,30/
&MESH IJK=200,20,75, XB=460,560,75,85,0,30/
&MESH IJK=200,20,75, XB=460,560,85,95,0,30/
&MESH IJK=200,20,75, XB=60,160,25,35,0,30/
&MESH IJK=200,20,75, XB=60,160,35,45,0,30/
&MESH IJK=200,20,75, XB=60,160,45,55,0,30/
&MESH IJK=200,20,75, XB=60,160,55,65,0,30/
&MESH IJK=200,20,75, XB=60,160,65,75,0,30/
&MESH IJK=200,20,75, XB=60,160,75,85,0,30/
&MESH IJK=200,20,75, XB=60,160,85,95,0,30/
&MESH IJK=60,70,75, XB=0,60,25,95,0,30/
&MESH IJK=560,70,8, XB=0,560,25,95,30,38/
&MESH IJK=280,35,31, XB=0,560,25,95,38,100/


#### Inflow
&RAMP ID='wind',F=1,T=0 /
&RAMP ID='wind',F=1,T=10 /
&SURF ID='WIND', PROFILE='ATMOSPHERIC',Z0=10,VEL=-8.0,PLE=0.143, RAMP_V='wind',COLOR='BLUE' /

#### Boundary conditions
###### Meshing Domain: x(0,560) y(25,95) AOI: x(400,480) y(25,95)
&VENT XB=0,0,25,95,0,100, SURF_ID='WIND'/
&VENT XB=560,560,25,95,0,100, SURF_ID='OPEN'/
&VENT XB=0,560,25,25,0,100, SURF_ID='PERIODIC'/
&VENT XB=0,560,95,95,0,100, SURF_ID='PERIODIC'/
&VENT XB=0,560,25,95,100,100, SURF_ID='MIRROR'/

#### Outputs
&DUMP  DT_SLCF=1.0, DT_PART=1.0, DT_BNDF=1.0/
	
&SLCF XB=400,480,25,95,1,1, QUANTITY='VELOCITY', VECTOR=.TRUE. /
&SLCF PBZ=2, QUANTITY='VELOCITY', VECTOR=.TRUE. /
&SLCF XB=400,480,25,95,3,3, QUANTITY='VELOCITY', VECTOR=.TRUE. /
&SLCF XB=400,480,25,95,4,4, QUANTITY='VELOCITY', VECTOR=.TRUE. /
&SLCF XB=400,480,25,95,6,6, QUANTITY='VELOCITY', VECTOR=.TRUE. /
&SLCF XB=400,480,25,95,8,8, QUANTITY='VELOCITY', VECTOR=.TRUE. /
&SLCF XB=400,480,25,95,10,10, QUANTITY='VELOCITY', VECTOR=.TRUE. /
&SLCF XB=400,480,25,95,13,13, QUANTITY='VELOCITY', VECTOR=.TRUE. /
&SLCF XB=400,480,25,95,16,16, QUANTITY='VELOCITY', VECTOR=.TRUE. /
&SLCF XB=400,480,25,95,20,20, QUANTITY='VELOCITY', VECTOR=.TRUE. /

&SLCF PBY=60, QUANTITY='VELOCITY', VECTOR=.TRUE. /

&BNDF QUANTITY='WALL THICKNESS' /
&BNDF QUANTITY='BURNING RATE' /

######### GLOBAL SETTINGS

&REAC ID='WOOD'
      FYI='Ritchie, et al., 5th IAFSS, C_3.4 H_6.2 O_2.5'
      SOOT_YIELD = 0.02
      O          = 2.5
      C          = 3.4
      H          = 6.2
      HEAT_OF_COMBUSTION = 17700 /
	  
&SPEC ID='WATER VAPOR' /
&TIME TWFIN=1000. /
&MISC RADIATION=.TRUE.,BAROCLINIC=.TRUE.,TERRAIN_CASE=.FALSE.,WIND_ONLY=.FALSE.,U_Z0_UATM=8.0,PLE_UATM=0.143,Z0_UATM=10. /
	
&SURF ID='IGN FIRE', HRRPUA=800.,RAMP_Q='RAMPFIRE', RGB = 255, 165, 0/
&RAMP ID='RAMPFIRE',T=0.0,F=0.0 /
&RAMP ID='RAMPFIRE',T=80.0,F=0.0 /
&RAMP ID='RAMPFIRE',T=85.0,F=1.0 /
&RAMP ID='RAMPFIRE',T=95.0,F=1.0 /
&RAMP ID='RAMPFIRE',T=100.0,F=0.0 /

&VENT XB=300,308,25,95,0,0, SURF_ID='IGN FIRE'/

######### FUELS SETTINGS

&SURF ID = '0xfuel'
      VEGETATION = .TRUE.
	  VEG_UNIT_DRAG_COEFF = .TRUE.
      VEG_DRAG_CONSTANT	= 0.375
      VEG_MOISTURE 	= .06
      VEG_SV= 5800
      VEG_CHAR_FRACTION	= 0.265
      VEG_LOAD     	= 1.656
      VEG_HEIGHT   	= 0.25
      VEG_DENSITY	= 510
      FIRELINE_MLR_MAX = 0.35
      RGB			= 140, 171, 77 / 

&SURF ID = '1xfuel'
      VEGETATION = .TRUE.
	  VEG_UNIT_DRAG_COEFF = .TRUE.
      VEG_DRAG_CONSTANT	= 0.375
      VEG_MOISTURE 	= .06
      VEG_SV= 5800
      VEG_CHAR_FRACTION	= 0.265
      VEG_LOAD     	= 0.1108
      VEG_HEIGHT   	= 0.163
      VEG_DENSITY	= 510
      FIRELINE_MLR_MAX = 0.35
      RGB			= 132, 171, 77 / 

&SURF ID = '3xfuel'
      VEGETATION = .TRUE.
	  VEG_UNIT_DRAG_COEFF = .TRUE.
      VEG_DRAG_CONSTANT	= 0.375
      VEG_MOISTURE 	= .06
      VEG_SV= 5800
      VEG_CHAR_FRACTION	= 0.265
      VEG_LOAD     	= 0.0373
      VEG_HEIGHT   	= 0.170
      VEG_DENSITY	= 510
      FIRELINE_MLR_MAX = 0.35
      RGB			= 132, 171, 77 / 
	  
&SURF ID = 'bare'
      VEGETATION = .TRUE.
	  VEG_UNIT_DRAG_COEFF = .TRUE.
      VEG_DRAG_CONSTANT	= 0.375
      VEG_MOISTURE 	= .06
      VEG_SV= 5800
      VEG_CHAR_FRACTION	= 0.265
      VEG_LOAD     	= 0.044
      VEG_HEIGHT   	= 0.041
      VEG_DENSITY	= 510
      FIRELINE_MLR_MAX = 0.35
      RGB			= 171, 117, 77  / 

&PART ID='PIME',TREE=.TRUE.,QUANTITIES='VEG_TEMPERATURE','VEG_DRY_MASS',
      VEG_INITIAL_TEMPERATURE=20., VEG_KEEP_FOR_SMV=.TRUE. ,
      VEG_SV=5808.,VEG_MOISTURE=0.77,VEG_CHAR_FRACTION=0.25,
      VEG_DRAG_CONSTANT=0.159,VEG_DENSITY=520.,VEG_BULK_DENSITY=0.5,
      VEG_BURNING_RATE_MAX=0.18,VEG_DEHYDRATION_RATE_MAX=0.18,
      VEG_REMOVE_CHARRED=.TRUE. /
	
&PART ID='ALCR',TREE=.TRUE.,QUANTITIES='VEG_TEMPERATURE','VEG_DRY_MASS',
      VEG_INITIAL_TEMPERATURE=20., VEG_KEEP_FOR_SMV=.TRUE. ,
      VEG_SV=5808.,VEG_MOISTURE=0.89,VEG_CHAR_FRACTION=0.25,
      VEG_DRAG_CONSTANT=0.159,VEG_DENSITY=520.,VEG_BULK_DENSITY=0.2,
      VEG_BURNING_RATE_MAX=0.18,VEG_DEHYDRATION_RATE_MAX=0.18,
      VEG_REMOVE_CHARRED=.TRUE. /
	  
&PART ID='BENE',TREE=.TRUE.,QUANTITIES='VEG_TEMPERATURE','VEG_DRY_MASS',
      VEG_INITIAL_TEMPERATURE=20., VEG_KEEP_FOR_SMV=.TRUE. ,
      VEG_SV=5808.,VEG_MOISTURE=0.89,VEG_CHAR_FRACTION=0.25,
      VEG_DRAG_CONSTANT=0.159,VEG_DENSITY=520.,VEG_BULK_DENSITY=0.2,
      VEG_BURNING_RATE_MAX=0.18,VEG_DEHYDRATION_RATE_MAX=0.18,
      VEG_REMOVE_CHARRED=.TRUE. /
	  
&PART ID='POTR',TREE=.TRUE.,QUANTITIES='VEG_TEMPERATURE','VEG_DRY_MASS',
      VEG_INITIAL_TEMPERATURE=20., VEG_KEEP_FOR_SMV=.TRUE. ,
      VEG_SV=5808.,VEG_MOISTURE=0.89,VEG_CHAR_FRACTION=0.25,
      VEG_DRAG_CONSTANT=0.159,VEG_DENSITY=520.,VEG_BULK_DENSITY=0.2,
      VEG_BURNING_RATE_MAX=0.18,VEG_DEHYDRATION_RATE_MAX=0.18,
      VEG_REMOVE_CHARRED=.TRUE. /
	  
&PART ID='SALIX',TREE=.TRUE.,QUANTITIES='VEG_TEMPERATURE','VEG_DRY_MASS',
      VEG_INITIAL_TEMPERATURE=20., VEG_KEEP_FOR_SMV=.TRUE. ,
      VEG_SV=5808.,VEG_MOISTURE=0.89,VEG_CHAR_FRACTION=0.25,
      VEG_DRAG_CONSTANT=0.159,VEG_DENSITY=520.,VEG_BULK_DENSITY=0.2,
      VEG_BURNING_RATE_MAX=0.18,VEG_DEHYDRATION_RATE_MAX=0.18,
      VEG_REMOVE_CHARRED=.TRUE. /
	  
	  
######### FUELS
&VENT XB=456,457,73,74,0,0,SURF_ID='bare' /
&VENT XB=365,366,53,54,0,0,SURF_ID='bare' /
&VENT XB=503,504,75,76,0,0,SURF_ID='bare' /
&VENT XB=387,388,40,41,0,0,SURF_ID='bare' /
&VENT XB=556,557,29,30,0,0,SURF_ID='bare' /
&VENT XB=427,428,28,29,0,0,SURF_ID='bare' /
&VENT XB=515,516,34,35,0,0,SURF_ID='bare' /
&VENT XB=363,364,74,75,0,0,SURF_ID='bare' /
&VENT XB=505,506,90,91,0,0,SURF_ID='bare' /
&VENT XB=464,465,65,66,0,0,SURF_ID='bare' /
&VENT XB=386,387,80,81,0,0,SURF_ID='bare' /
&VENT XB=490,491,41,42,0,0,SURF_ID='bare' /
&VENT XB=425,426,41,42,0,0,SURF_ID='bare' /
&VENT XB=534,535,43,44,0,0,SURF_ID='bare' /
&VENT XB=497,498,60,61,0,0,SURF_ID='bare' /
&VENT XB=443,444,26,27,0,0,SURF_ID='bare' /
&VENT XB=485,486,38,39,0,0,SURF_ID='bare' /
&VENT XB=426,427,62,63,0,0,SURF_ID='bare' /
&VENT XB=469,470,87,88,0,0,SURF_ID='bare' /
&VENT XB=474,475,61,62,0,0,SURF_ID='bare' /
&VENT XB=483,484,48,49,0,0,SURF_ID='bare' /
&VENT XB=437,438,28,29,0,0,SURF_ID='bare' /
&VENT XB=456,457,86,87,0,0,SURF_ID='bare' /
&VENT XB=418,419,94,95,0,0,SURF_ID='bare' /
&VENT XB=557,558,87,88,0,0,SURF_ID='bare' /
&VENT XB=470,471,77,78,0,0,SURF_ID='bare' /
&VENT XB=456,457,32,33,0,0,SURF_ID='bare' /
&VENT XB=470,471,45,46,0,0,SURF_ID='bare' /
&VENT XB=496,497,57,58,0,0,SURF_ID='bare' /
&VENT XB=447,448,40,41,0,0,SURF_ID='bare' /
&VENT XB=477,478,86,87,0,0,SURF_ID='bare' /
&VENT XB=441,442,65,66,0,0,SURF_ID='bare' /
&VENT XB=435,436,61,62,0,0,SURF_ID='bare' /
&VENT XB=386,387,52,53,0,0,SURF_ID='bare' /
&VENT XB=510,511,49,50,0,0,SURF_ID='bare' /
&VENT XB=548,549,94,95,0,0,SURF_ID='bare' /
&VENT XB=509,510,74,75,0,0,SURF_ID='bare' /
&VENT XB=476,477,83,84,0,0,SURF_ID='bare' /
&VENT XB=520,521,37,38,0,0,SURF_ID='bare' /
&VENT XB=401,402,89,90,0,0,SURF_ID='bare' /
&VENT XB=360,361,46,47,0,0,SURF_ID='bare' /
&VENT XB=543,544,70,71,0,0,SURF_ID='bare' /
&VENT XB=481,482,58,59,0,0,SURF_ID='bare' /
&VENT XB=424,425,43,44,0,0,SURF_ID='bare' /
&VENT XB=414,415,44,45,0,0,SURF_ID='bare' /
&VENT XB=375,376,78,79,0,0,SURF_ID='bare' /
&VENT XB=528,529,85,86,0,0,SURF_ID='bare' /
&VENT XB=459,460,88,89,0,0,SURF_ID='bare' /
&VENT XB=462,463,84,85,0,0,SURF_ID='bare' /
&VENT XB=456,457,34,35,0,0,SURF_ID='bare' /
&VENT XB=430,431,52,53,0,0,SURF_ID='bare' /
&VENT XB=381,382,40,41,0,0,SURF_ID='bare' /
&VENT XB=536,537,94,95,0,0,SURF_ID='bare' /
&VENT XB=465,466,53,54,0,0,SURF_ID='bare' /
&VENT XB=508,509,48,49,0,0,SURF_ID='bare' /
&VENT XB=490,491,58,59,0,0,SURF_ID='bare' /
&VENT XB=527,528,76,77,0,0,SURF_ID='bare' /
&VENT XB=550,551,43,44,0,0,SURF_ID='bare' /
&VENT XB=466,467,65,66,0,0,SURF_ID='bare' /
&VENT XB=529,530,25,26,0,0,SURF_ID='bare' /
&VENT XB=487,488,52,53,0,0,SURF_ID='bare' /
&VENT XB=370,371,59,60,0,0,SURF_ID='bare' /
&VENT XB=535,536,63,64,0,0,SURF_ID='bare' /
&VENT XB=464,465,85,86,0,0,SURF_ID='bare' /
&VENT XB=383,384,61,62,0,0,SURF_ID='bare' /
&VENT XB=368,369,57,58,0,0,SURF_ID='bare' /
&VENT XB=434,435,35,36,0,0,SURF_ID='bare' /
&VENT XB=550,551,39,40,0,0,SURF_ID='bare' /
&VENT XB=543,544,80,81,0,0,SURF_ID='bare' /
&VENT XB=555,556,71,72,0,0,SURF_ID='bare' /
&VENT XB=520,521,88,89,0,0,SURF_ID='bare' /
&VENT XB=427,428,84,85,0,0,SURF_ID='bare' /
&VENT XB=417,418,60,61,0,0,SURF_ID='bare' /
&VENT XB=550,551,60,61,0,0,SURF_ID='bare' /
&VENT XB=482,483,53,54,0,0,SURF_ID='bare' /
&VENT XB=555,556,30,31,0,0,SURF_ID='bare' /
&VENT XB=424,425,62,63,0,0,SURF_ID='bare' /
&VENT XB=397,398,60,61,0,0,SURF_ID='bare' /
&VENT XB=451,452,82,83,0,0,SURF_ID='bare' /
&VENT XB=548,549,88,89,0,0,SURF_ID='bare' /
&VENT XB=501,502,25,26,0,0,SURF_ID='bare' /
&VENT XB=384,385,89,90,0,0,SURF_ID='bare' /
&VENT XB=514,515,64,65,0,0,SURF_ID='bare' /
&VENT XB=418,419,87,88,0,0,SURF_ID='bare' /
&VENT XB=436,437,49,50,0,0,SURF_ID='bare' /
&VENT XB=400,401,54,55,0,0,SURF_ID='bare' /
&VENT XB=390,391,43,44,0,0,SURF_ID='bare' /
&VENT XB=403,404,42,43,0,0,SURF_ID='bare' /
&VENT XB=454,455,31,32,0,0,SURF_ID='bare' /
&VENT XB=507,508,61,62,0,0,SURF_ID='bare' /
&VENT XB=425,426,47,48,0,0,SURF_ID='bare' /
&VENT XB=510,511,75,76,0,0,SURF_ID='bare' /
&VENT XB=469,470,25,26,0,0,SURF_ID='bare' /
&VENT XB=542,543,92,93,0,0,SURF_ID='bare' /
&VENT XB=450,451,33,34,0,0,SURF_ID='bare' /
&VENT XB=517,518,34,35,0,0,SURF_ID='bare' /
&VENT XB=416,417,76,77,0,0,SURF_ID='bare' /
&VENT XB=428,429,58,59,0,0,SURF_ID='bare' /
&VENT XB=431,432,32,33,0,0,SURF_ID='bare' /
&VENT XB=453,454,90,91,0,0,SURF_ID='bare' /
&VENT XB=366,367,94,95,0,0,SURF_ID='bare' /
&VENT XB=524,525,65,66,0,0,SURF_ID='bare' /
&VENT XB=414,415,93,94,0,0,SURF_ID='bare' /
&VENT XB=503,504,93,94,0,0,SURF_ID='bare' /
&VENT XB=370,371,50,51,0,0,SURF_ID='bare' /
&VENT XB=556,557,72,73,0,0,SURF_ID='bare' /
&VENT XB=414,415,58,59,0,0,SURF_ID='bare' /
&VENT XB=534,535,72,73,0,0,SURF_ID='bare' /
&VENT XB=471,472,92,93,0,0,SURF_ID='bare' /
&VENT XB=436,437,72,73,0,0,SURF_ID='bare' /
&VENT XB=517,518,40,41,0,0,SURF_ID='bare' /
&VENT XB=473,474,51,52,0,0,SURF_ID='bare' /
&VENT XB=392,393,65,66,0,0,SURF_ID='bare' /
&VENT XB=406,407,68,69,0,0,SURF_ID='bare' /
&VENT XB=412,413,73,74,0,0,SURF_ID='bare' /
&VENT XB=387,388,30,31,0,0,SURF_ID='bare' /
&VENT XB=449,450,55,56,0,0,SURF_ID='bare' /
&VENT XB=471,472,52,53,0,0,SURF_ID='bare' /
&VENT XB=521,522,80,81,0,0,SURF_ID='bare' /
&VENT XB=523,524,25,26,0,0,SURF_ID='bare' /
&VENT XB=547,548,62,63,0,0,SURF_ID='bare' /
&VENT XB=383,384,46,47,0,0,SURF_ID='bare' /
&VENT XB=371,372,90,91,0,0,SURF_ID='bare' /
&VENT XB=490,491,75,76,0,0,SURF_ID='bare' /
&VENT XB=549,550,84,85,0,0,SURF_ID='bare' /
&VENT XB=382,383,70,71,0,0,SURF_ID='bare' /
&VENT XB=486,487,33,34,0,0,SURF_ID='bare' /
&VENT XB=540,541,50,51,0,0,SURF_ID='bare' /
&VENT XB=418,419,39,40,0,0,SURF_ID='bare' /
&VENT XB=458,459,28,29,0,0,SURF_ID='bare' /
&VENT XB=363,364,47,48,0,0,SURF_ID='bare' /
&VENT XB=468,469,85,86,0,0,SURF_ID='bare' /
&VENT XB=492,493,70,71,0,0,SURF_ID='bare' /
&VENT XB=397,398,54,55,0,0,SURF_ID='bare' /
&VENT XB=385,386,32,33,0,0,SURF_ID='bare' /
&VENT XB=425,426,28,29,0,0,SURF_ID='bare' /
&VENT XB=492,493,83,84,0,0,SURF_ID='bare' /
&VENT XB=507,508,93,94,0,0,SURF_ID='bare' /
&VENT XB=400,401,60,61,0,0,SURF_ID='bare' /
&VENT XB=402,403,29,30,0,0,SURF_ID='bare' /
&VENT XB=399,400,71,72,0,0,SURF_ID='bare' /
&VENT XB=539,540,39,40,0,0,SURF_ID='bare' /
&VENT XB=486,487,56,57,0,0,SURF_ID='bare' /
&VENT XB=468,469,49,50,0,0,SURF_ID='bare' /
&VENT XB=483,484,28,29,0,0,SURF_ID='bare' /
&VENT XB=414,415,86,87,0,0,SURF_ID='bare' /
&VENT XB=410,411,34,35,0,0,SURF_ID='bare' /
&VENT XB=458,459,91,92,0,0,SURF_ID='bare' /
&VENT XB=547,548,60,61,0,0,SURF_ID='bare' /
&VENT XB=390,391,36,37,0,0,SURF_ID='bare' /
&VENT XB=556,557,80,81,0,0,SURF_ID='bare' /
&VENT XB=423,424,73,74,0,0,SURF_ID='bare' /
&VENT XB=420,421,46,47,0,0,SURF_ID='bare' /
&VENT XB=535,536,31,32,0,0,SURF_ID='bare' /
&VENT XB=542,543,25,26,0,0,SURF_ID='bare' /
&VENT XB=369,370,40,41,0,0,SURF_ID='bare' /
&VENT XB=545,546,47,48,0,0,SURF_ID='bare' /
&VENT XB=486,487,35,36,0,0,SURF_ID='bare' /
&VENT XB=455,456,32,33,0,0,SURF_ID='bare' /
&VENT XB=507,508,66,67,0,0,SURF_ID='bare' /
&VENT XB=404,405,41,42,0,0,SURF_ID='bare' /
&VENT XB=363,364,61,62,0,0,SURF_ID='bare' /
&VENT XB=533,534,61,62,0,0,SURF_ID='bare' /
&VENT XB=515,516,43,44,0,0,SURF_ID='bare' /
&VENT XB=386,387,68,69,0,0,SURF_ID='bare' /
&VENT XB=432,433,59,60,0,0,SURF_ID='bare' /
&VENT XB=495,496,47,48,0,0,SURF_ID='bare' /
&VENT XB=537,538,78,79,0,0,SURF_ID='bare' /
&VENT XB=503,504,46,47,0,0,SURF_ID='bare' /
&VENT XB=385,386,37,38,0,0,SURF_ID='bare' /
&VENT XB=517,518,42,43,0,0,SURF_ID='bare' /
&VENT XB=392,393,60,61,0,0,SURF_ID='bare' /
&VENT XB=369,370,39,40,0,0,SURF_ID='bare' /
&VENT XB=387,388,27,28,0,0,SURF_ID='bare' /
&VENT XB=412,413,82,83,0,0,SURF_ID='bare' /
&VENT XB=537,538,82,83,0,0,SURF_ID='bare' /
&VENT XB=368,369,53,54,0,0,SURF_ID='bare' /
&VENT XB=374,375,57,58,0,0,SURF_ID='bare' /
&VENT XB=530,531,47,48,0,0,SURF_ID='bare' /
&VENT XB=447,448,60,61,0,0,SURF_ID='bare' /
&VENT XB=549,550,39,40,0,0,SURF_ID='bare' /
&VENT XB=452,453,53,54,0,0,SURF_ID='bare' /
&VENT XB=444,445,25,26,0,0,SURF_ID='bare' /
&VENT XB=431,432,39,40,0,0,SURF_ID='bare' /
&VENT XB=382,383,79,80,0,0,SURF_ID='bare' /
&VENT XB=362,363,61,62,0,0,SURF_ID='bare' /
&VENT XB=512,513,89,90,0,0,SURF_ID='bare' /
&VENT XB=372,373,65,66,0,0,SURF_ID='bare' /
&VENT XB=546,547,87,88,0,0,SURF_ID='bare' /
&VENT XB=510,511,46,47,0,0,SURF_ID='bare' /
&VENT XB=549,550,77,78,0,0,SURF_ID='bare' /
&VENT XB=409,410,70,71,0,0,SURF_ID='bare' /
&VENT XB=381,382,89,90,0,0,SURF_ID='bare' /
&VENT XB=460,461,48,49,0,0,SURF_ID='bare' /
&VENT XB=364,365,33,34,0,0,SURF_ID='bare' /
&VENT XB=511,512,47,48,0,0,SURF_ID='bare' /
&VENT XB=530,531,70,71,0,0,SURF_ID='bare' /
&VENT XB=451,452,78,79,0,0,SURF_ID='bare' /
&VENT XB=558,559,26,27,0,0,SURF_ID='bare' /
&VENT XB=477,478,94,95,0,0,SURF_ID='bare' /
&VENT XB=431,432,62,63,0,0,SURF_ID='bare' /
&VENT XB=511,512,82,83,0,0,SURF_ID='bare' /
&VENT XB=374,375,74,75,0,0,SURF_ID='bare' /
&VENT XB=482,483,64,65,0,0,SURF_ID='bare' /
&VENT XB=408,409,64,65,0,0,SURF_ID='bare' /
&VENT XB=410,411,65,66,0,0,SURF_ID='bare' /
&VENT XB=545,546,66,67,0,0,SURF_ID='bare' /
&VENT XB=390,391,86,87,0,0,SURF_ID='bare' /
&VENT XB=388,389,51,52,0,0,SURF_ID='bare' /
&VENT XB=364,365,89,90,0,0,SURF_ID='bare' /
&VENT XB=380,381,41,42,0,0,SURF_ID='bare' /
&VENT XB=397,398,69,70,0,0,SURF_ID='bare' /
&VENT XB=432,433,34,35,0,0,SURF_ID='bare' /
&VENT XB=470,471,33,34,0,0,SURF_ID='bare' /
&VENT XB=552,553,78,79,0,0,SURF_ID='bare' /
&VENT XB=518,519,67,68,0,0,SURF_ID='bare' /
&VENT XB=433,434,62,63,0,0,SURF_ID='bare' /
&VENT XB=445,446,90,91,0,0,SURF_ID='bare' /
&VENT XB=465,466,27,28,0,0,SURF_ID='bare' /
&VENT XB=469,470,43,44,0,0,SURF_ID='bare' /
&VENT XB=468,469,48,49,0,0,SURF_ID='bare' /
&VENT XB=522,523,72,73,0,0,SURF_ID='bare' /
&VENT XB=360,361,49,50,0,0,SURF_ID='bare' /
&VENT XB=526,527,34,35,0,0,SURF_ID='bare' /
&VENT XB=381,382,32,33,0,0,SURF_ID='bare' /
&VENT XB=440,441,36,37,0,0,SURF_ID='bare' /
&VENT XB=530,531,90,91,0,0,SURF_ID='bare' /
&VENT XB=411,412,37,38,0,0,SURF_ID='bare' /
&VENT XB=511,512,81,82,0,0,SURF_ID='bare' /
&VENT XB=545,546,70,71,0,0,SURF_ID='bare' /
&VENT XB=469,470,58,59,0,0,SURF_ID='bare' /
&VENT XB=438,439,74,75,0,0,SURF_ID='bare' /
&VENT XB=400,401,81,82,0,0,SURF_ID='bare' /
&VENT XB=360,361,94,95,0,0,SURF_ID='bare' /
&VENT XB=450,451,86,87,0,0,SURF_ID='bare' /
&VENT XB=534,535,84,85,0,0,SURF_ID='bare' /
&VENT XB=471,472,45,46,0,0,SURF_ID='bare' /
&VENT XB=525,526,86,87,0,0,SURF_ID='bare' /
&VENT XB=447,448,29,30,0,0,SURF_ID='bare' /
&VENT XB=436,437,48,49,0,0,SURF_ID='bare' /
&VENT XB=436,437,38,39,0,0,SURF_ID='bare' /
&VENT XB=523,524,48,49,0,0,SURF_ID='bare' /
&VENT XB=386,387,60,61,0,0,SURF_ID='bare' /
&VENT XB=542,543,59,60,0,0,SURF_ID='bare' /
&VENT XB=382,383,86,87,0,0,SURF_ID='bare' /
&VENT XB=379,380,36,37,0,0,SURF_ID='bare' /
&VENT XB=558,559,87,88,0,0,SURF_ID='bare' /
&VENT XB=521,522,76,77,0,0,SURF_ID='bare' /
&VENT XB=435,436,31,32,0,0,SURF_ID='bare' /
&VENT XB=524,525,52,53,0,0,SURF_ID='bare' /
&VENT XB=426,427,92,93,0,0,SURF_ID='bare' /
&VENT XB=539,540,45,46,0,0,SURF_ID='bare' /
&VENT XB=483,484,60,61,0,0,SURF_ID='bare' /
&VENT XB=554,555,34,35,0,0,SURF_ID='bare' /
&VENT XB=515,516,53,54,0,0,SURF_ID='bare' /
&VENT XB=487,488,36,37,0,0,SURF_ID='bare' /
&VENT XB=406,407,58,59,0,0,SURF_ID='bare' /
&VENT XB=542,543,83,84,0,0,SURF_ID='bare' /
&VENT XB=481,482,67,68,0,0,SURF_ID='bare' /
&VENT XB=415,416,28,29,0,0,SURF_ID='bare' /
&VENT XB=412,413,83,84,0,0,SURF_ID='bare' /
&VENT XB=468,469,41,42,0,0,SURF_ID='bare' /
&VENT XB=489,490,92,93,0,0,SURF_ID='bare' /
&VENT XB=374,375,70,71,0,0,SURF_ID='bare' /
&VENT XB=446,447,34,35,0,0,SURF_ID='bare' /
&VENT XB=533,534,45,46,0,0,SURF_ID='bare' /
&VENT XB=425,426,81,82,0,0,SURF_ID='bare' /
&VENT XB=557,558,39,40,0,0,SURF_ID='bare' /
&VENT XB=538,539,92,93,0,0,SURF_ID='bare' /
&VENT XB=384,385,71,72,0,0,SURF_ID='bare' /
&VENT XB=468,469,79,80,0,0,SURF_ID='bare' /
&VENT XB=370,371,27,28,0,0,SURF_ID='bare' /
&VENT XB=397,398,45,46,0,0,SURF_ID='bare' /
&VENT XB=517,518,66,67,0,0,SURF_ID='bare' /
&VENT XB=527,528,60,61,0,0,SURF_ID='bare' /
&VENT XB=504,505,87,88,0,0,SURF_ID='bare' /
&VENT XB=421,422,35,36,0,0,SURF_ID='bare' /
&VENT XB=476,477,43,44,0,0,SURF_ID='bare' /
&VENT XB=502,503,61,62,0,0,SURF_ID='bare' /
&VENT XB=396,397,40,41,0,0,SURF_ID='bare' /
&VENT XB=494,495,66,67,0,0,SURF_ID='bare' /
&VENT XB=411,412,65,66,0,0,SURF_ID='bare' /
&VENT XB=461,462,71,72,0,0,SURF_ID='bare' /
&VENT XB=427,428,87,88,0,0,SURF_ID='bare' /
&VENT XB=506,507,89,90,0,0,SURF_ID='bare' /
&VENT XB=537,538,64,65,0,0,SURF_ID='bare' /
&VENT XB=481,482,76,77,0,0,SURF_ID='bare' /
&VENT XB=364,365,94,95,0,0,SURF_ID='bare' /
&VENT XB=485,486,76,77,0,0,SURF_ID='bare' /
&VENT XB=447,448,84,85,0,0,SURF_ID='bare' /
&VENT XB=527,528,94,95,0,0,SURF_ID='bare' /
&VENT XB=530,531,65,66,0,0,SURF_ID='bare' /
&VENT XB=437,438,91,92,0,0,SURF_ID='bare' /
&VENT XB=494,495,52,53,0,0,SURF_ID='bare' /
&VENT XB=500,501,62,63,0,0,SURF_ID='bare' /
&VENT XB=422,423,93,94,0,0,SURF_ID='bare' /
&VENT XB=525,526,52,53,0,0,SURF_ID='bare' /
&VENT XB=423,424,41,42,0,0,SURF_ID='bare' /
&VENT XB=418,419,79,80,0,0,SURF_ID='bare' /
&VENT XB=471,472,89,90,0,0,SURF_ID='bare' /
&VENT XB=391,392,46,47,0,0,SURF_ID='bare' /
&VENT XB=364,365,27,28,0,0,SURF_ID='bare' /
&VENT XB=374,375,30,31,0,0,SURF_ID='bare' /
&VENT XB=499,500,68,69,0,0,SURF_ID='bare' /
&VENT XB=485,486,33,34,0,0,SURF_ID='bare' /
&VENT XB=435,436,35,36,0,0,SURF_ID='bare' /
&VENT XB=487,488,71,72,0,0,SURF_ID='bare' /
&VENT XB=478,479,41,42,0,0,SURF_ID='bare' /
&VENT XB=360,361,61,62,0,0,SURF_ID='bare' /
&VENT XB=478,479,26,27,0,0,SURF_ID='bare' /
&VENT XB=495,496,33,34,0,0,SURF_ID='bare' /
&VENT XB=413,414,31,32,0,0,SURF_ID='bare' /
&VENT XB=452,453,38,39,0,0,SURF_ID='bare' /
&VENT XB=508,509,71,72,0,0,SURF_ID='bare' /
&VENT XB=417,418,65,66,0,0,SURF_ID='bare' /
&VENT XB=463,464,31,32,0,0,SURF_ID='bare' /
&VENT XB=434,435,75,76,0,0,SURF_ID='bare' /
&VENT XB=390,391,72,73,0,0,SURF_ID='bare' /
&VENT XB=556,557,52,53,0,0,SURF_ID='bare' /
&VENT XB=409,410,46,47,0,0,SURF_ID='bare' /
&VENT XB=544,545,49,50,0,0,SURF_ID='bare' /
&VENT XB=437,438,57,58,0,0,SURF_ID='bare' /
&VENT XB=546,547,51,52,0,0,SURF_ID='bare' /
&VENT XB=431,432,88,89,0,0,SURF_ID='bare' /
&VENT XB=401,402,82,83,0,0,SURF_ID='bare' /
&VENT XB=487,488,40,41,0,0,SURF_ID='bare' /
&VENT XB=534,535,57,58,0,0,SURF_ID='bare' /
&VENT XB=513,514,34,35,0,0,SURF_ID='bare' /
&VENT XB=558,559,62,63,0,0,SURF_ID='bare' /
&VENT XB=382,383,29,30,0,0,SURF_ID='bare' /
&VENT XB=552,553,62,63,0,0,SURF_ID='bare' /
&VENT XB=427,428,94,95,0,0,SURF_ID='bare' /
&VENT XB=438,439,28,29,0,0,SURF_ID='bare' /
&VENT XB=405,406,86,87,0,0,SURF_ID='bare' /
&VENT XB=482,483,75,76,0,0,SURF_ID='bare' /
&VENT XB=540,541,69,70,0,0,SURF_ID='bare' /
&VENT XB=523,524,63,64,0,0,SURF_ID='bare' /
&VENT XB=428,429,27,28,0,0,SURF_ID='bare' /
&VENT XB=422,423,32,33,0,0,SURF_ID='bare' /
&VENT XB=523,524,57,58,0,0,SURF_ID='bare' /
&VENT XB=421,422,34,35,0,0,SURF_ID='bare' /
&VENT XB=465,466,63,64,0,0,SURF_ID='bare' /
&VENT XB=543,544,78,79,0,0,SURF_ID='bare' /
&VENT XB=413,414,58,59,0,0,SURF_ID='bare' /
&VENT XB=447,448,72,73,0,0,SURF_ID='bare' /
&VENT XB=524,525,62,63,0,0,SURF_ID='bare' /
&VENT XB=428,429,90,91,0,0,SURF_ID='bare' /
&VENT XB=389,390,90,91,0,0,SURF_ID='bare' /
&VENT XB=430,431,88,89,0,0,SURF_ID='bare' /
&VENT XB=430,431,69,70,0,0,SURF_ID='bare' /
&VENT XB=533,534,34,35,0,0,SURF_ID='bare' /
&VENT XB=447,448,87,88,0,0,SURF_ID='bare' /
&VENT XB=468,469,60,61,0,0,SURF_ID='bare' /
&VENT XB=440,441,75,76,0,0,SURF_ID='bare' /
&VENT XB=370,371,80,81,0,0,SURF_ID='bare' /
&VENT XB=452,453,30,31,0,0,SURF_ID='bare' /
&VENT XB=529,530,71,72,0,0,SURF_ID='bare' /
&VENT XB=404,405,46,47,0,0,SURF_ID='bare' /
&VENT XB=435,436,43,44,0,0,SURF_ID='bare' /
&VENT XB=454,455,28,29,0,0,SURF_ID='bare' /
&VENT XB=489,490,44,45,0,0,SURF_ID='bare' /
&VENT XB=460,461,57,58,0,0,SURF_ID='bare' /
&VENT XB=541,542,81,82,0,0,SURF_ID='bare' /
&VENT XB=548,549,45,46,0,0,SURF_ID='bare' /
&VENT XB=390,391,27,28,0,0,SURF_ID='bare' /
&VENT XB=427,428,42,43,0,0,SURF_ID='bare' /
&VENT XB=524,525,59,60,0,0,SURF_ID='bare' /
&VENT XB=516,517,45,46,0,0,SURF_ID='bare' /
&VENT XB=433,434,44,45,0,0,SURF_ID='bare' /
&VENT XB=518,519,90,91,0,0,SURF_ID='bare' /
&VENT XB=439,440,62,63,0,0,SURF_ID='bare' /
&VENT XB=403,404,39,40,0,0,SURF_ID='bare' /
&VENT XB=475,476,77,78,0,0,SURF_ID='bare' /
&VENT XB=483,484,34,35,0,0,SURF_ID='bare' /
&VENT XB=425,426,38,39,0,0,SURF_ID='bare' /
&VENT XB=438,439,62,63,0,0,SURF_ID='bare' /
&VENT XB=398,399,42,43,0,0,SURF_ID='bare' /
&VENT XB=379,380,83,84,0,0,SURF_ID='bare' /
&VENT XB=536,537,38,39,0,0,SURF_ID='bare' /
&VENT XB=407,408,42,43,0,0,SURF_ID='bare' /
&VENT XB=545,546,82,83,0,0,SURF_ID='bare' /
&VENT XB=505,506,78,79,0,0,SURF_ID='bare' /
&VENT XB=443,444,79,80,0,0,SURF_ID='bare' /
&VENT XB=442,443,59,60,0,0,SURF_ID='bare' /
&VENT XB=497,498,63,64,0,0,SURF_ID='bare' /
&VENT XB=460,461,32,33,0,0,SURF_ID='bare' /
&VENT XB=376,377,92,93,0,0,SURF_ID='bare' /
&VENT XB=551,552,69,70,0,0,SURF_ID='bare' /
&VENT XB=375,376,70,71,0,0,SURF_ID='bare' /
&VENT XB=517,518,50,51,0,0,SURF_ID='bare' /
&VENT XB=558,559,73,74,0,0,SURF_ID='bare' /
&VENT XB=439,440,28,29,0,0,SURF_ID='bare' /
&VENT XB=399,400,73,74,0,0,SURF_ID='bare' /
&VENT XB=398,399,84,85,0,0,SURF_ID='bare' /
&VENT XB=418,419,81,82,0,0,SURF_ID='bare' /
&VENT XB=449,450,70,71,0,0,SURF_ID='bare' /
&VENT XB=551,552,68,69,0,0,SURF_ID='bare' /
&VENT XB=546,547,53,54,0,0,SURF_ID='bare' /
&VENT XB=552,553,64,65,0,0,SURF_ID='bare' /
&VENT XB=375,376,71,72,0,0,SURF_ID='bare' /
&VENT XB=362,363,87,88,0,0,SURF_ID='bare' /
&VENT XB=454,455,48,49,0,0,SURF_ID='bare' /
&VENT XB=375,376,46,47,0,0,SURF_ID='bare' /
&VENT XB=430,431,38,39,0,0,SURF_ID='bare' /
&VENT XB=520,521,59,60,0,0,SURF_ID='bare' /
&VENT XB=546,547,44,45,0,0,SURF_ID='bare' /
&VENT XB=416,417,37,38,0,0,SURF_ID='bare' /
&VENT XB=406,407,94,95,0,0,SURF_ID='bare' /
&VENT XB=509,510,93,94,0,0,SURF_ID='bare' /
&VENT XB=426,427,79,80,0,0,SURF_ID='bare' /
&VENT XB=546,547,45,46,0,0,SURF_ID='bare' /
&VENT XB=393,394,79,80,0,0,SURF_ID='bare' /
&VENT XB=452,453,90,91,0,0,SURF_ID='bare' /
&VENT XB=401,402,51,52,0,0,SURF_ID='bare' /
&VENT XB=402,403,33,34,0,0,SURF_ID='bare' /
&VENT XB=417,418,64,65,0,0,SURF_ID='bare' /
&VENT XB=558,559,30,31,0,0,SURF_ID='bare' /
&VENT XB=541,542,40,41,0,0,SURF_ID='bare' /
&VENT XB=438,439,65,66,0,0,SURF_ID='bare' /
&VENT XB=456,457,60,61,0,0,SURF_ID='bare' /
&VENT XB=485,486,37,38,0,0,SURF_ID='bare' /
&VENT XB=428,429,64,65,0,0,SURF_ID='bare' /
&VENT XB=515,516,80,81,0,0,SURF_ID='bare' /
&VENT XB=542,543,66,67,0,0,SURF_ID='bare' /
&VENT XB=477,478,74,75,0,0,SURF_ID='bare' /
&VENT XB=360,361,42,43,0,0,SURF_ID='bare' /
&VENT XB=520,521,47,48,0,0,SURF_ID='bare' /
&VENT XB=524,525,91,92,0,0,SURF_ID='bare' /
&VENT XB=469,470,84,85,0,0,SURF_ID='bare' /
&VENT XB=401,402,61,62,0,0,SURF_ID='bare' /
&VENT XB=548,549,82,83,0,0,SURF_ID='bare' /
&VENT XB=516,517,43,44,0,0,SURF_ID='bare' /
&VENT XB=439,440,30,31,0,0,SURF_ID='bare' /
&VENT XB=389,390,40,41,0,0,SURF_ID='bare' /
&VENT XB=514,515,37,38,0,0,SURF_ID='bare' /
&VENT XB=426,427,42,43,0,0,SURF_ID='bare' /
&VENT XB=439,440,41,42,0,0,SURF_ID='bare' /
&VENT XB=360,361,58,59,0,0,SURF_ID='bare' /
&VENT XB=504,505,57,58,0,0,SURF_ID='bare' /
&VENT XB=385,386,64,65,0,0,SURF_ID='bare' /
&VENT XB=475,476,34,35,0,0,SURF_ID='bare' /
&VENT XB=515,516,73,74,0,0,SURF_ID='bare' /
&VENT XB=508,509,82,83,0,0,SURF_ID='bare' /
&VENT XB=394,395,81,82,0,0,SURF_ID='bare' /
&VENT XB=431,432,69,70,0,0,SURF_ID='bare' /
&VENT XB=502,503,89,90,0,0,SURF_ID='bare' /
&VENT XB=425,426,43,44,0,0,SURF_ID='bare' /
&VENT XB=453,454,66,67,0,0,SURF_ID='bare' /
&VENT XB=416,417,77,78,0,0,SURF_ID='bare' /
&VENT XB=454,455,49,50,0,0,SURF_ID='bare' /
&VENT XB=393,394,35,36,0,0,SURF_ID='bare' /
&VENT XB=373,374,33,34,0,0,SURF_ID='bare' /
&VENT XB=397,398,42,43,0,0,SURF_ID='bare' /
&VENT XB=559,560,38,39,0,0,SURF_ID='bare' /
&VENT XB=529,530,33,34,0,0,SURF_ID='bare' /
&VENT XB=526,527,71,72,0,0,SURF_ID='bare' /
&VENT XB=476,477,29,30,0,0,SURF_ID='bare' /
&VENT XB=422,423,84,85,0,0,SURF_ID='bare' /
&VENT XB=468,469,71,72,0,0,SURF_ID='bare' /
&VENT XB=375,376,52,53,0,0,SURF_ID='bare' /
&VENT XB=377,378,38,39,0,0,SURF_ID='bare' /
&VENT XB=476,477,93,94,0,0,SURF_ID='bare' /
&VENT XB=438,439,90,91,0,0,SURF_ID='bare' /
&VENT XB=466,467,45,46,0,0,SURF_ID='bare' /
&VENT XB=440,441,48,49,0,0,SURF_ID='bare' /
&VENT XB=390,391,87,88,0,0,SURF_ID='bare' /
&VENT XB=473,474,91,92,0,0,SURF_ID='bare' /
&VENT XB=486,487,92,93,0,0,SURF_ID='bare' /
&VENT XB=368,369,28,29,0,0,SURF_ID='bare' /
&VENT XB=534,535,49,50,0,0,SURF_ID='bare' /
&VENT XB=372,373,93,94,0,0,SURF_ID='bare' /
&VENT XB=484,485,72,73,0,0,SURF_ID='bare' /
&VENT XB=360,361,36,37,0,0,SURF_ID='bare' /
&VENT XB=382,383,32,33,0,0,SURF_ID='bare' /
&VENT XB=428,429,53,54,0,0,SURF_ID='bare' /
&VENT XB=539,540,49,50,0,0,SURF_ID='bare' /
&VENT XB=442,443,63,64,0,0,SURF_ID='bare' /
&VENT XB=448,449,37,38,0,0,SURF_ID='bare' /
&VENT XB=474,475,41,42,0,0,SURF_ID='bare' /
&VENT XB=393,394,26,27,0,0,SURF_ID='bare' /
&VENT XB=513,514,92,93,0,0,SURF_ID='bare' /
&VENT XB=537,538,32,33,0,0,SURF_ID='bare' /
&VENT XB=527,528,89,90,0,0,SURF_ID='bare' /
&VENT XB=363,364,62,63,0,0,SURF_ID='bare' /
&VENT XB=492,493,50,51,0,0,SURF_ID='bare' /
&VENT XB=369,370,37,38,0,0,SURF_ID='bare' /
&VENT XB=558,559,88,89,0,0,SURF_ID='bare' /
&VENT XB=535,536,42,43,0,0,SURF_ID='bare' /
&VENT XB=511,512,28,29,0,0,SURF_ID='bare' /
&VENT XB=398,399,81,82,0,0,SURF_ID='bare' /
&VENT XB=498,499,72,73,0,0,SURF_ID='bare' /
&VENT XB=362,363,74,75,0,0,SURF_ID='bare' /
&VENT XB=449,450,87,88,0,0,SURF_ID='bare' /
&VENT XB=448,449,70,71,0,0,SURF_ID='bare' /
&VENT XB=362,363,49,50,0,0,SURF_ID='bare' /
&VENT XB=445,446,39,40,0,0,SURF_ID='bare' /
&VENT XB=380,381,59,60,0,0,SURF_ID='bare' /
&VENT XB=546,547,74,75,0,0,SURF_ID='bare' /
&VENT XB=368,369,26,27,0,0,SURF_ID='bare' /
&VENT XB=533,534,49,50,0,0,SURF_ID='bare' /
&VENT XB=496,497,93,94,0,0,SURF_ID='bare' /
&VENT XB=409,410,32,33,0,0,SURF_ID='bare' /
&VENT XB=511,512,41,42,0,0,SURF_ID='bare' /
&VENT XB=368,369,42,43,0,0,SURF_ID='bare' /
&VENT XB=553,554,46,47,0,0,SURF_ID='bare' /